
 ANSYS Mechanical Enterprise                       


 *------------------------------------------------------------------*
 |                                                                  |
 |   W E L C O M E   T O   T H E   A N S Y S (R)  P R O G R A M     |
 |                                                                  |
 *------------------------------------------------------------------*




 ***************************************************************
 *            ANSYS Release 19.2     LEGAL NOTICES             *
 ***************************************************************
 *                                                             *
 * Copyright 1971-2018 ANSYS, Inc.  All rights reserved.       *
 * Unauthorized use, distribution or duplication is            *
 * prohibited.                                                 *
 *                                                             *
 * Ansys is a registered trademark of ANSYS, Inc. or its       *
 * subsidiaries in the United States or other countries.       *
 * See the ANSYS, Inc. online documentation or the ANSYS, Inc. *
 * documentation CD or online help for the complete Legal      *
 * Notice.                                                     *
 *                                                             *
 ***************************************************************
 *                                                             *
 * THIS ANSYS SOFTWARE PRODUCT AND PROGRAM DOCUMENTATION       *
 * INCLUDE TRADE SECRETS AND CONFIDENTIAL AND PROPRIETARY      *
 * PRODUCTS OF ANSYS, INC., ITS SUBSIDIARIES, OR LICENSORS.    *
 * The software products and documentation are furnished by    *
 * ANSYS, Inc. or its subsidiaries under a software license    *
 * agreement that contains provisions concerning               *
 * non-disclosure, copying, length and nature of use,          *
 * compliance with exporting laws, warranties, disclaimers,    *
 * limitations of liability, and remedies, and other           *
 * provisions.  The software products and documentation may be *
 * used, disclosed, transferred, or copied only in accordance  *
 * with the terms and conditions of that software license      *
 * agreement.                                                  *
 *                                                             *
 * ANSYS, Inc. is a UL registered                              *
 * ISO 9001:2008 company.                                      *
 *                                                             *
 ***************************************************************
 *                                                             *
 * This product is subject to U.S. laws governing export and   *
 * re-export.                                                  *
 *                                                             *
 * For U.S. Government users, except as specifically granted   *
 * by the ANSYS, Inc. software license agreement, the use,     *
 * duplication, or disclosure by the United States Government  *
 * is subject to restrictions stated in the ANSYS, Inc.        *
 * software license agreement and FAR 12.212 (for non-DOD      *
 * licenses).                                                  *
 *                                                             *
 ***************************************************************

 Release 19.2
     
 Point Releases and Patches installed:   
     
 ANSYS, Inc. Products Release 19.2   
 SpaceClaim Release 19.2 
 AIM Release 19.2
 Autodyn Release 19.2
 LS-DYNA Release 19.2
 CFD-Post only Release 19.2  
 CFX (includes CFD-Post) Release 19.2
 Chemkin Release 19.2
 EnSight Release 19.2
 FENSAP-ICE Release 19.2 
 Fluent (includes CFD-Post) Release 19.2 
 Forte Release 19.2  
 Polyflow (includes CFD-Post) Release 19.2   
 TurboGrid Release 19.2  
 ICEM CFD Release 19.2   
 Aqwa Release 19.2   
 Customization Files for User Programmable Features Release 19.2 
 Mechanical Products Release 19.2
 Icepak (includes CFD-Post) Release 19.2 
 Remote Solve Manager Standalone Services Release 19.2   
 Viewer Release 19.2 
 ACIS Geometry Interface Release 19.2
 AutoCAD Geometry Interface Release 19.2 
 Catia, Version 4 Geometry Interface Release 19.2
 Catia, Version 5 Geometry Interface Release 19.2
 Catia, Version 6 Geometry Interface Release 19.2
 Creo Elements/Direct Modeling Geometry Interface Release 19.2   
 Creo Parametric Geometry Interface Release 19.2 
 Inventor Geometry Interface Release 19.2
 JTOpen Geometry Interface Release 19.2  
 NX Geometry Interface Release 19.2  
 Parasolid Geometry Interface  Release 19.2  
 Solid Edge Geometry Interface Release 19.2  
 SOLIDWORKS Geometry Interface Release 19.2  
 ANSYS, Inc. License Manager Release 19.2


          *****  ANSYS COMMAND LINE ARGUMENTS  *****
  BATCH MODE REQUESTED (-b)    = NOLIST
  INPUT FILE COPY MODE (-c)    = COPY
  DISTRIBUTED MEMORY PARALLEL REQUESTED
       2 PARALLEL PROCESSES REQUESTED WITH SINGLE THREAD PER PROCESS
    TOTAL OF     2 CORES REQUESTED
  MPI OPTION                   = INTELMPI
  INPUT FILE NAME              = S:\FILES(imp)\BIPED\ANALYSIS\module_7\_ProjectScratch\Scr106F\dummy.dat
  OUTPUT FILE NAME             = S:\FILES(imp)\BIPED\ANALYSIS\module_7\_ProjectScratch\Scr106F\solve.out
  START-UP FILE MODE           = NOREAD
  STOP FILE MODE               = NOREAD

 RELEASE= Release 19.2         BUILD= 19.2      UP20180808   VERSION=WINDOWS x64 
 CURRENT JOBNAME=file0  23:08:27  DEC 19, 2018 CP=      0.203


 PARAMETER _DS_PROGRESS =     999.0000000    

 /INPUT FILE= ds.dat  LINE=       0



 *** NOTE ***                            CP =       0.359   TIME= 23:08:27
 The /CONFIG,NOELDB command is not valid in a Distributed ANSYS          
 solution.  Command is ignored.                                          

 *GET  _WALLSTRT  FROM  ACTI  ITEM=TIME WALL  VALUE=  23.1408333    

 TITLE= 
 module_7_2--Transient (B5)                                                    


 SET PARAMETER DIMENSIONS ON  _WB_PROJECTSCRATCH_DIR
  TYPE=STRI  DIMENSIONS=      248        1        1

 PARAMETER _WB_PROJECTSCRATCH_DIR(1) = S:\FILES(imp)\BIPED\ANALYSIS\module_7\_ProjectScratch\Scr106F\

 SET PARAMETER DIMENSIONS ON  _WB_SOLVERFILES_DIR
  TYPE=STRI  DIMENSIONS=      248        1        1

 PARAMETER _WB_SOLVERFILES_DIR(1) = S:\FILES(imp)\BIPED\ANALYSIS\module_7\module_7_2_files\dp0\SYS\MECH\

 SET PARAMETER DIMENSIONS ON  _WB_USERFILES_DIR
  TYPE=STRI  DIMENSIONS=      248        1        1

 PARAMETER _WB_USERFILES_DIR(1) = S:\FILES(imp)\BIPED\ANALYSIS\module_7\module_7_2_files\user_files\
 --- Data in consistent MKS units. See Solving Units in the help system for more

 MKS UNITS SPECIFIED FOR INTERNAL    
  LENGTH        (l)  = METER (M)
  MASS          (M)  = KILOGRAM (KG)
  TIME          (t)  = SECOND (SEC)
  TEMPERATURE   (T)  = CELSIUS (C)
  TOFFSET            = 273.0
  CHARGE        (Q)  = COULOMB
  FORCE         (f)  = NEWTON (N) (KG-M/SEC2)
  HEAT               = JOULE (N-M)

  PRESSURE           = PASCAL (NEWTON/M**2)
  ENERGY        (W)  = JOULE (N-M)
  POWER         (P)  = WATT (N-M/SEC)
  CURRENT       (i)  = AMPERE (COULOMBS/SEC)
  CAPACITANCE   (C)  = FARAD
  INDUCTANCE    (L)  = HENRY
  MAGNETIC FLUX      = WEBER
  RESISTANCE    (R)  = OHM
  ELECTRIC POTENTIAL = VOLT

 INPUT  UNITS ARE ALSO SET TO MKS 

 *** ANSYS - ENGINEERING ANALYSIS SYSTEM  RELEASE Release 19.2     19.2     ***
 DISTRIBUTED ANSYS Mechanical Enterprise                       

 00000000  VERSION=WINDOWS x64   23:08:27  DEC 19, 2018 CP=      0.359

 module_7_2--Transient (B5)                                                    



          ***** ANSYS ANALYSIS DEFINITION (PREP7) *****
 *********** Nodes for the whole assembly ***********
 *********** Nodes for all Remote Points ***********
 *********** Elements for Body 1 "MODULE_6_TSLOT[72]" ***********
 *********** Elements for Body 2 "MODULE_7_UNIVERSAL_BLINK[73]" ***********
 *********** Elements for Body 3 "MODULE_7_UNIVERSAL_SPIDER[78]" ***********
 *********** Elements for Body 4 "MODULE_7_UNIVERSAL_ALINK[80]" ***********
 *********** Elements for Body 5 "MODULE_7_FOOT[81]" ***********
 *********** Elements for Body 6 "MODULE_7_LINK1_2[100]" ***********
 *********** Elements for Body 7 "MODULE_7_LINK2_2[105]" ***********
 *********** Elements for Body 8 "MODULE_7_LINK4[109]" ***********
 *********** Elements for Body 9 "MODULE_7_LINK5[121]" ***********
 *********** Elements for Body 10 "MODULE_7_LINK4[114]" ***********
 *********** Elements for Body 11 "MODULE_7_LINK6[122]" ***********
 *********** Elements for Body 12 "MODULE_7_LEADSCREWNUT[128]" ***********
 *********** Elements for Body 13 "MODULE_7_LINK2_2[137]" ***********
 *********** Elements for Body 14 "MODULE_7_LINK3_2[138]" ***********
 *********** Elements for Body 15 "MODULE_7_LINK4[143]" ***********
 *********** Elements for Body 16 "MODULE_7_LINK5[144]" ***********
 *********** Elements for Body 17 "MODULE_7_LINK4[145]" ***********
 *********** Elements for Body 18 "MODULE_7_LINK6[146]" ***********
 *********** Elements for Body 19 "MODULE_7_LEADSCREWNUT[147]" ***********
 *********** Elements for Body 20 "MODULE_7_LINK3_2[166]" ***********
 *********** Elements for Body 21 "MODULE_7_LINK3_3[167]" ***********
 *********** Elements for Body 22 "MODULE_7_LINK3_3[168]" ***********
 *********** Elements for Body 23 "KNEE_1_MOTOR_1[169]" ***********
 *********** Elements for Body 24 "KNEE_1_MOTOR_1[170]" ***********
 *********** Elements for Body 25 "MODULE_7_LEADSCREW[174]" ***********
 *********** Elements for Body 26 "MODULE_7_LEADSCREW[175]" ***********
 *********** Send User Defined Coordinate System(s) ***********
 *********** Set Reference Temperature ***********
 *********** Send Materials ***********
 *********** Create Remote Point "Internal Remote Point 2" ***********
 *********** Create Remote Point "Internal Remote Point 3" ***********
 *********** Create Remote Point "Internal Remote Point 4" ***********
 *********** Create Remote Point "Internal Remote Point 5" ***********
 *********** Create Remote Point "Internal Remote Point 6" ***********
 *********** Create Remote Point "Internal Remote Point 7" ***********
 *********** Create Remote Point "Internal Remote Point 8" ***********
 *********** Create Remote Point "Internal Remote Point 9" ***********
 *********** Create Remote Point "Internal Remote Point 10" ***********
 *********** Create Remote Point "Internal Remote Point 11" ***********
 *********** Create Remote Point "Internal Remote Point 12" ***********
 *********** Create Remote Point "Internal Remote Point 13" ***********
 *********** Create Remote Point "Internal Remote Point 14" ***********
 *********** Create Remote Point "Internal Remote Point 15" ***********
 *********** Create Remote Point "Internal Remote Point 16" ***********
 *********** Create Remote Point "Internal Remote Point 17" ***********
 *********** Create Remote Point "Internal Remote Point 18" ***********
 *********** Create Remote Point "Internal Remote Point 19" ***********
 *********** Create Remote Point "Internal Remote Point 20" ***********
 *********** Create Remote Point "Internal Remote Point 21" ***********
 *********** Create Remote Point "Internal Remote Point 22" ***********
 *********** Create Remote Point "Internal Remote Point 23" ***********
 *********** Create Remote Point "Internal Remote Point 24" ***********
 *********** Create Remote Point "Internal Remote Point 25" ***********
 *********** Create Remote Point "Internal Remote Point 26" ***********
 *********** Create Remote Point "Internal Remote Point 27" ***********
 *********** Create Remote Point "Internal Remote Point 28" ***********
 *********** Create Remote Point "Internal Remote Point 29" ***********
 *********** Create Remote Point "Internal Remote Point 30" ***********
 *********** Create Remote Point "Internal Remote Point 31" ***********
 *********** Create Remote Point "Internal Remote Point 32" ***********
 *********** Create Remote Point "Internal Remote Point 33" ***********
 *********** Create Remote Point "Internal Remote Point 34" ***********
 *********** Create Remote Point "Internal Remote Point 35" ***********
 *********** Create Remote Point "Internal Remote Point 36" ***********
 *********** Create Remote Point "Internal Remote Point 37" ***********
 *********** Create Remote Point "Internal Remote Point 38" ***********
 *********** Create Remote Point "Internal Remote Point 39" ***********
 *********** Create Remote Point "Internal Remote Point 40" ***********
 *********** Create Remote Point "Internal Remote Point 41" ***********
 *********** Create Remote Point "Internal Remote Point 42" ***********
 *********** Create Remote Point "Internal Remote Point 43" ***********
 *********** Create Remote Point "Internal Remote Point 44" ***********
 *********** Create Remote Point "Internal Remote Point 45" ***********
 *********** Create Remote Point "Internal Remote Point 46" ***********
 *********** Create Remote Point "Internal Remote Point 47" ***********
 *********** Create Remote Point "Internal Remote Point 48" ***********
 *********** Create Remote Point "Internal Remote Point 49" ***********
 *********** Create Remote Point "Internal Remote Point 50" ***********
 *********** Create Remote Point "Internal Remote Point 51" ***********
 *********** Create Remote Point "Internal Remote Point 52" ***********
 *********** Create Remote Point "Internal Remote Point 53" ***********
 *********** Create Remote Point "Internal Remote Point 54" ***********
 *********** Create Remote Point "Internal Remote Point 55" ***********
 *********** Create Remote Point "Internal Remote Point 56" ***********
 *********** Create Joint "Fixed - Ground To MODULE_6_TSLOT[72]" ***********
             Real Constant Set For Above Joint Is 137
 *********** Create Joint "Fixed - MODULE_6_TSLOT[72] To MODULE_7_LINK1_2[100]" 
             Real Constant Set For Above Joint Is 138
 *********** Create Joint "Revolute - MODULE_7_LINK1_2[100] To MODULE_7_LINK2_2[
             Real Constant Set For Above Joint Is 139
 *********** Create Joint "Revolute - MODULE_7_LINK1_2[100] To MODULE_7_LINK2_2[
             Real Constant Set For Above Joint Is 140
 *********** Create Joint "Revolute - MODULE_7_LINK2_2[105] To MODULE_7_LINK3_2[
             Real Constant Set For Above Joint Is 141
 *********** Create Joint "Revolute - MODULE_7_LINK2_2[137] To MODULE_7_LINK3_2[
             Real Constant Set For Above Joint Is 142
 *********** Create Joint "Fixed - MODULE_7_LINK3_2[166] To MODULE_7_LINK3_3[167
             Real Constant Set For Above Joint Is 143
 *********** Create Joint "Fixed - MODULE_7_LINK3_2[138] To MODULE_7_LINK3_3[168
             Real Constant Set For Above Joint Is 144
 *********** Create Joint "Fixed - MODULE_7_LINK3_2[166] To KNEE_1_MOTOR_1[169]"
             Real Constant Set For Above Joint Is 145
 *********** Create Joint "Fixed - MODULE_7_LINK3_2[138] To KNEE_1_MOTOR_1[170]"
             Real Constant Set For Above Joint Is 146
 *********** Create Joint "Fixed - KNEE_1_MOTOR_1[169] To MODULE_7_LEADSCREW[174
             Real Constant Set For Above Joint Is 147
 *********** Create Joint "Fixed - KNEE_1_MOTOR_1[170] To MODULE_7_LEADSCREW[175
             Real Constant Set For Above Joint Is 148
 *********** Create Joint "Translational - MODULE_7_LEADSCREW[174] To MODULE_7_L
             Real Constant Set For Above Joint Is 149
 *********** Create Joint "Translational - MODULE_7_LEADSCREW[175] To MODULE_7_L
             Real Constant Set For Above Joint Is 150
 *********** Create Joint "Fixed - MODULE_7_LEADSCREWNUT[128] To MODULE_7_LINK6[
             Real Constant Set For Above Joint Is 151
 *********** Create Joint "Fixed - MODULE_7_LEADSCREWNUT[147] To MODULE_7_LINK6[
             Real Constant Set For Above Joint Is 152
 *********** Create Joint "Fixed - MODULE_6_TSLOT[72] To MODULE_7_UNIVERSAL_BLIN
             Real Constant Set For Above Joint Is 153
 *********** Create Joint "Revolute - MODULE_7_LINK6[122] To MODULE_7_LINK5[121]
             Real Constant Set For Above Joint Is 154
 *********** Create Joint "Revolute - MODULE_7_LINK6[146] To MODULE_7_LINK5[144]
             Real Constant Set For Above Joint Is 155
 *********** Create Joint "Revolute - MODULE_7_LINK5[121] To MODULE_7_LINK4[114]
             Real Constant Set For Above Joint Is 156
 *********** Create Joint "Revolute - MODULE_7_LINK5[144] To MODULE_7_LINK4[143]
             Real Constant Set For Above Joint Is 157
 *********** Create Joint "Fixed - MODULE_7_FOOT[81] To MODULE_7_LINK4[114]" ***
             Real Constant Set For Above Joint Is 158
 *********** Create Joint "Fixed - MODULE_7_FOOT[81] To MODULE_7_LINK4[145]" ***
             Real Constant Set For Above Joint Is 159
 *********** Create Joint "Fixed - MODULE_7_FOOT[81] To MODULE_7_UNIVERSAL_ALINK
             Real Constant Set For Above Joint Is 160
 *********** Create Joint "Revolute - MODULE_7_UNIVERSAL_SPIDER[78] To MODULE_7_
             Real Constant Set For Above Joint Is 161
 *********** Create Joint "Revolute - MODULE_7_UNIVERSAL_ALINK[80] To MODULE_7_U
             Real Constant Set For Above Joint Is 162
 *********** Create Joint "Fixed - MODULE_7_FOOT[81] To MODULE_7_LINK4[143]" ***
             Real Constant Set For Above Joint Is 163
 *********** Create Joint "Fixed - MODULE_7_FOOT[81] To MODULE_7_LINK4[109]" ***
             Real Constant Set For Above Joint Is 164
 *********** Create Joint Drivers **********


 ***** ROUTINE COMPLETED *****  CP =         1.047


 --- Number of total nodes = 77585
 --- Number of contact elements = 2743
 --- Number of spring elements = 0
 --- Number of bearing elements = 0
 --- Number of solid elements = 31052
 --- Number of condensed parts = 0
 --- Number of total elements = 33878

 *GET  _WALLBSOL  FROM  ACTI  ITEM=TIME WALL  VALUE=  23.1411111    
 ****************************************************************************
 *************************    SOLUTION       ********************************
 ****************************************************************************

 *****  ANSYS SOLUTION ROUTINE  *****


 PERFORM A TRANSIENT ANALYSIS
  THIS WILL BE A NEW ANALYSIS

 LARGE DEFORMATION ANALYSIS

 STEP BOUNDARY CONDITION KEY= 1

 USE SPARSE MATRIX DIRECT SOLVER

 CONTACT INFORMATION PRINTOUT LEVEL       1

 DO NOT COMBINE ELEMENT MATRIX FILES (.emat) AFTER DISTRIBUTED PARALLEL SOLUTION

 DO NOT COMBINE ELEMENT SAVE DATA FILES (.esav) AFTER DISTRIBUTED PARALLEL SOLUTION

 PERFORM A FULL TRANSIENT ANALYSIS
  USING HHT ALGORITHM

 USE AMPLITUDE DECAY FACTOR FOR SECOND ORDER TRANSIENT PARAMETERS
   GAMMA= 0.1000      (ALPHA= 0.3025      DELTA= 0.6000      ALPHAF= 0.1000      ALPHAM=  0.000    )

 NLDIAG: Nonlinear diagnostics CONT option is set to ON. 
         Writing frequency : each ITERATION.

 DEFINE RESTART CONTROL FOR LOADSTEP LAST
 AT FREQUENCY OF LAST AND NUMBER FOR OVERWRITE IS    0

 DELETE RESTART FILES OF ENDSTEP
 ****************************************************
 ******************* SOLVE FOR LS 1 OF 1 ****************

 PRINTOUT RESUMED BY /GOP

 SELECT       FOR ITEM=TYPE COMPONENT=    
  IN RANGE       161 TO        161 STEP          1

          1  ELEMENTS (OF      33878  DEFINED) SELECTED BY  ESEL  COMMAND.

 APPLIED BOUNDARY CONDITIONS OR FORCES FOR JOINT ELEMENTS

SPECIFIED VALUE FOR ALL SELECTED ELEMENTS
FORCE, MOMENT, DISPLACEMENT OR ROTATION LABEL = ROTZ
SET ACCORDING TO TABLE PARAMETER              = _LOADVARI564                    

 ALL SELECT   FOR ITEM=ELEM COMPONENT=    
  IN RANGE         1 TO      71138 STEP          1

      33878  ELEMENTS (OF      33878  DEFINED) SELECTED BY  ESEL  COMMAND.

 USE AUTOMATIC TIME STEPPING THIS LOAD STEP

 USE INITIAL TIME STEP SIZE OF  2.000000     FOR ALL  DEGREES OF FREEDOM
 FOR AUTOMATIC TIME STEPPING:
   USE  1.000000     AS THE MINIMUM TIME STEP SIZE
   USE  3.000000     AS THE MAXIMUM TIME STEP SIZE

 TIME=  10.000    

 INCLUDE TRANSIENT EFFECTS FOR  ALL DEGREES OF FREEDOM THIS LOAD STEP

 ERASE THE CURRENT DATABASE OUTPUT CONTROL TABLE.


 WRITE ALL  ITEMS TO THE DATABASE WITH A FREQUENCY OF NONE
   FOR ALL APPLICABLE ENTITIES

 WRITE NSOL ITEMS TO THE DATABASE WITH A FREQUENCY OF ALL 
   FOR ALL APPLICABLE ENTITIES

 WRITE RSOL ITEMS TO THE DATABASE WITH A FREQUENCY OF ALL 
   FOR ALL APPLICABLE ENTITIES

 WRITE STRS ITEMS TO THE DATABASE WITH A FREQUENCY OF ALL 
   FOR ALL APPLICABLE ENTITIES

 WRITE EPEL ITEMS TO THE DATABASE WITH A FREQUENCY OF ALL 
   FOR ALL APPLICABLE ENTITIES

 WRITE EPPL ITEMS TO THE DATABASE WITH A FREQUENCY OF ALL 
   FOR ALL APPLICABLE ENTITIES

 WRITE V    ITEMS TO THE DATABASE WITH A FREQUENCY OF ALL 
   FOR ALL APPLICABLE ENTITIES

 WRITE A    ITEMS TO THE DATABASE WITH A FREQUENCY OF ALL 
   FOR ALL APPLICABLE ENTITIES

 PRINTOUT RESUMED BY /GOP

 WRITE MISC ITEMS TO THE DATABASE WITH A FREQUENCY OF ALL 
   FOR THE ENTITIES DEFINED BY COMPONENT _ELMISC 

 NONLINEAR STABILIZATION CONTROL:
 KEY=OFF 


 *GET  ANSINTER_  FROM  ACTI  ITEM=INT        VALUE=  0.00000000    

 *IF  ANSINTER_                         ( =   0.00000     )  NE  
      0                                 ( =   0.00000     )  THEN    

 *ENDIF

 *** NOTE ***                            CP =       1.109   TIME= 23:08:28
 The automatic domain decomposition logic has selected the MESH domain   
 decomposition method with 2 processes per solution.                     

 *****  ANSYS SOLVE    COMMAND  *****

 *** WARNING ***                         CP =       1.109   TIME= 23:08:28
 Element shape checking is currently inactive.  Issue SHPP,ON or         
 SHPP,WARN to reactivate, if desired.                                    

 *** NOTE ***                            CP =       1.203   TIME= 23:08:28
 The model data was checked and warning messages were found.             
  Please review output or errors file (                                  
 S:\FILES(imp)\BIPED\ANALYSIS\module_7\_ProjectScratch\Scr106F\file0.err 
 r ) for these warning messages.                                         

 *** SELECTION OF ELEMENT TECHNOLOGIES FOR APPLICABLE ELEMENTS ***
      --- GIVE SUGGESTIONS AND RESET THE KEY OPTIONS ---

 ELEMENT TYPE    1 IS SOLID186. KEYOPT(2)=0 IS SUGGESTED AND HAS BEEN RESET.
  KEYOPT(1-12)=    0    0    0    0    0    0    0    0    0    0    0    0

 ELEMENT TYPE    2 IS SOLID187. IT IS NOT ASSOCIATED WITH FULLY INCOMPRESSIBLE
 HYPERELASTIC MATERIALS. NO SUGGESTION IS AVAILABLE AND NO RESETTING IS NEEDED.

 ELEMENT TYPE    3 IS SOLID187. IT IS NOT ASSOCIATED WITH FULLY INCOMPRESSIBLE
 HYPERELASTIC MATERIALS. NO SUGGESTION IS AVAILABLE AND NO RESETTING IS NEEDED.

 ELEMENT TYPE    4 IS SOLID187. IT IS NOT ASSOCIATED WITH FULLY INCOMPRESSIBLE
 HYPERELASTIC MATERIALS. NO SUGGESTION IS AVAILABLE AND NO RESETTING IS NEEDED.

 ELEMENT TYPE    5 IS SOLID187. IT IS NOT ASSOCIATED WITH FULLY INCOMPRESSIBLE
 HYPERELASTIC MATERIALS. NO SUGGESTION IS AVAILABLE AND NO RESETTING IS NEEDED.

 ELEMENT TYPE    6 IS SOLID187. IT IS NOT ASSOCIATED WITH FULLY INCOMPRESSIBLE
 HYPERELASTIC MATERIALS. NO SUGGESTION IS AVAILABLE AND NO RESETTING IS NEEDED.

 ELEMENT TYPE    7 IS SOLID187. IT IS NOT ASSOCIATED WITH FULLY INCOMPRESSIBLE
 HYPERELASTIC MATERIALS. NO SUGGESTION IS AVAILABLE AND NO RESETTING IS NEEDED.

 ELEMENT TYPE    8 IS SOLID187. IT IS NOT ASSOCIATED WITH FULLY INCOMPRESSIBLE
 HYPERELASTIC MATERIALS. NO SUGGESTION IS AVAILABLE AND NO RESETTING IS NEEDED.

 ELEMENT TYPE    9 IS SOLID187. IT IS NOT ASSOCIATED WITH FULLY INCOMPRESSIBLE
 HYPERELASTIC MATERIALS. NO SUGGESTION IS AVAILABLE AND NO RESETTING IS NEEDED.

 ELEMENT TYPE   10 IS SOLID187. IT IS NOT ASSOCIATED WITH FULLY INCOMPRESSIBLE
 HYPERELASTIC MATERIALS. NO SUGGESTION IS AVAILABLE AND NO RESETTING IS NEEDED.

 ELEMENT TYPE   11 IS SOLID187. IT IS NOT ASSOCIATED WITH FULLY INCOMPRESSIBLE
 HYPERELASTIC MATERIALS. NO SUGGESTION IS AVAILABLE AND NO RESETTING IS NEEDED.

 ELEMENT TYPE   12 IS SOLID187. IT IS NOT ASSOCIATED WITH FULLY INCOMPRESSIBLE
 HYPERELASTIC MATERIALS. NO SUGGESTION IS AVAILABLE AND NO RESETTING IS NEEDED.

 ELEMENT TYPE   13 IS SOLID187. IT IS NOT ASSOCIATED WITH FULLY INCOMPRESSIBLE
 HYPERELASTIC MATERIALS. NO SUGGESTION IS AVAILABLE AND NO RESETTING IS NEEDED.

 ELEMENT TYPE   14 IS SOLID187. IT IS NOT ASSOCIATED WITH FULLY INCOMPRESSIBLE
 HYPERELASTIC MATERIALS. NO SUGGESTION IS AVAILABLE AND NO RESETTING IS NEEDED.

 ELEMENT TYPE   15 IS SOLID187. IT IS NOT ASSOCIATED WITH FULLY INCOMPRESSIBLE
 HYPERELASTIC MATERIALS. NO SUGGESTION IS AVAILABLE AND NO RESETTING IS NEEDED.

 ELEMENT TYPE   16 IS SOLID187. IT IS NOT ASSOCIATED WITH FULLY INCOMPRESSIBLE
 HYPERELASTIC MATERIALS. NO SUGGESTION IS AVAILABLE AND NO RESETTING IS NEEDED.

 ELEMENT TYPE   17 IS SOLID187. IT IS NOT ASSOCIATED WITH FULLY INCOMPRESSIBLE
 HYPERELASTIC MATERIALS. NO SUGGESTION IS AVAILABLE AND NO RESETTING IS NEEDED.

 ELEMENT TYPE   18 IS SOLID187. IT IS NOT ASSOCIATED WITH FULLY INCOMPRESSIBLE
 HYPERELASTIC MATERIALS. NO SUGGESTION IS AVAILABLE AND NO RESETTING IS NEEDED.

 ELEMENT TYPE   19 IS SOLID187. IT IS NOT ASSOCIATED WITH FULLY INCOMPRESSIBLE
 HYPERELASTIC MATERIALS. NO SUGGESTION IS AVAILABLE AND NO RESETTING IS NEEDED.

 ELEMENT TYPE   20 IS SOLID187. IT IS NOT ASSOCIATED WITH FULLY INCOMPRESSIBLE
 HYPERELASTIC MATERIALS. NO SUGGESTION IS AVAILABLE AND NO RESETTING IS NEEDED.

 ELEMENT TYPE   21 IS SOLID187. IT IS NOT ASSOCIATED WITH FULLY INCOMPRESSIBLE
 HYPERELASTIC MATERIALS. NO SUGGESTION IS AVAILABLE AND NO RESETTING IS NEEDED.

 ELEMENT TYPE   22 IS SOLID187. IT IS NOT ASSOCIATED WITH FULLY INCOMPRESSIBLE
 HYPERELASTIC MATERIALS. NO SUGGESTION IS AVAILABLE AND NO RESETTING IS NEEDED.

 ELEMENT TYPE   23 IS SOLID187. IT IS NOT ASSOCIATED WITH FULLY INCOMPRESSIBLE
 HYPERELASTIC MATERIALS. NO SUGGESTION IS AVAILABLE AND NO RESETTING IS NEEDED.

 ELEMENT TYPE   24 IS SOLID187. IT IS NOT ASSOCIATED WITH FULLY INCOMPRESSIBLE
 HYPERELASTIC MATERIALS. NO SUGGESTION IS AVAILABLE AND NO RESETTING IS NEEDED.

 ELEMENT TYPE   25 IS SOLID186. KEYOPT(2)=0 IS SUGGESTED AND HAS BEEN RESET.
  KEYOPT(1-12)=    0    0    0    0    0    0    0    0    0    0    0    0

 ELEMENT TYPE   26 IS SOLID186. KEYOPT(2)=0 IS SUGGESTED AND HAS BEEN RESET.
  KEYOPT(1-12)=    0    0    0    0    0    0    0    0    0    0    0    0



 *** ANSYS - ENGINEERING ANALYSIS SYSTEM  RELEASE Release 19.2     19.2     ***
 DISTRIBUTED ANSYS Mechanical Enterprise                       

 00000000  VERSION=WINDOWS x64   23:08:28  DEC 19, 2018 CP=      1.234

 module_7_2--Transient (B5)                                                    



                       S O L U T I O N   O P T I O N S

   PROBLEM DIMENSIONALITY. . . . . . . . . . . . .3-D                  
   DEGREES OF FREEDOM. . . . . . UX   UY   UZ   ROTX ROTY ROTZ
   ANALYSIS TYPE . . . . . . . . . . . . . . . . .TRANSIENT            
      SOLUTION METHOD. . . . . . . . . . . . . . .FULL                 
   OFFSET TEMPERATURE FROM ABSOLUTE ZERO . . . . .  273.15    
   NONLINEAR GEOMETRIC EFFECTS . . . . . . . . . .ON
   EQUATION SOLVER OPTION. . . . . . . . . . . . .SPARSE             
   NEWTON-RAPHSON OPTION . . . . . . . . . . . . .PROGRAM CHOSEN   
   GLOBALLY ASSEMBLED MATRIX . . . . . . . . . . .SYMMETRIC  

 *** WARNING ***                         CP =       1.266   TIME= 23:08:28
 Material number 137 (used by element 68297) should normally have at     
 least one MP or one TB type command associated with it.  Output of      
 energy by material may not be available.                                

 *** WARNING ***                         CP =       1.266   TIME= 23:08:28
 No constraints have been defined using the D command.                   

 *** NOTE ***                            CP =       1.453   TIME= 23:08:28
 The step data was checked and warning messages were found.              
  Please review output or errors file (                                  
 S:\FILES(imp)\BIPED\ANALYSIS\module_7\_ProjectScratch\Scr106F\file0.err 
 r ) for these warning messages.                                         

 *** NOTE ***                            CP =       1.453   TIME= 23:08:28
 This nonlinear analysis defaults to using the full Newton-Raphson       
 solution procedure.  This can be modified using the NROPT command.      

 *** NOTE ***                            CP =       1.500   TIME= 23:08:28
 Internal nodes from 148391 to 148529 are created.                       
 55 internal nodes are used for handling degrees of freedom on pilot     
 nodes of rigid target surfaces.                                         
 84 internal nodes are used for non-contact elements with mixed          
 formulation.                                                            

 *** NOTE ***                            CP =       1.547   TIME= 23:08:28
 Internal nodes from 148391 to 148529 are created.                       
 55 internal nodes are used for handling degrees of freedom on pilot     
 nodes of rigid target surfaces.                                         
 84 internal nodes are used for non-contact elements with mixed          
 formulation.                                                            
 *WARNING*: Some MPC/Lagrange based elements (e.g.68341) in real         
 constant set 27 overlap with other MPC/Lagrange based elements          
 (e.g.69828) in real constant set 89 which can cause overconstraint.     

 *** NOTE ***                            CP =       1.641   TIME= 23:08:28
 Smoothing on certain contact nodes (e.g.28230) for pair ID 29 may have  
 accuracy issue.  Please verify element normal of connected contact      
 elements (e.g.68392 & 68393).                                           

 *** NOTE ***                            CP =       1.703   TIME= 23:08:28
 Force-distributed-surface identified by real constant set 27 and        
 contact element type 27 has been set up.  The pilot node 148336 is      
 used to apply the force which connects to other element 68297.          
 Internal MPC will be built.                                             
 The used degrees of freedom set is  UX   UY   UZ   ROTX ROTY ROTZ
 *WARNING*: Certain contact elements (for example 68384&68492) overlap   
 each other.                                                             
 ****************************************
  

 *** NOTE ***                            CP =       1.703   TIME= 23:08:28
 Force-distributed-surface identified by real constant set 29 and        
 contact element type 29 has been set up.  The pilot node 148337 is      
 used to apply the force which connects to other element 68298.          
 Internal MPC will be built.                                             
 The used degrees of freedom set is  UX   UY   UZ   ROTX ROTY ROTZ
 *WARNING*: Certain contact elements (for example 68494&68384) overlap   
 each other.                                                             
 ****************************************
  

 *** NOTE ***                            CP =       1.703   TIME= 23:08:28
 Force-distributed-surface identified by real constant set 31 and        
 contact element type 31 has been set up.  The pilot node 148338 is      
 used to apply the force which connects to other element 68298.          
 Internal MPC will be built.                                             
 The used degrees of freedom set is  UX   UY   UZ   ROTX ROTY ROTZ
 ****************************************
  

 *** NOTE ***                            CP =       1.703   TIME= 23:08:28
 Force-distributed-surface identified by real constant set 33 and        
 contact element type 33 has been set up.  The pilot node 148339 is      
 used to apply the force which connects to other element 68299.          
 Internal MPC will be built.                                             
 The used degrees of freedom set is  UX   UY   UZ   ROTX ROTY ROTZ
 ****************************************
  

 *** NOTE ***                            CP =       1.703   TIME= 23:08:28
 Force-distributed-surface identified by real constant set 35 and        
 contact element type 35 has been set up.  The pilot node 148340 is      
 used to apply the force which connects to other element 68299.          
 Internal MPC will be built.                                             
 The used degrees of freedom set is  UX   UY   UZ   ROTX ROTY ROTZ
 ****************************************
  

 *** NOTE ***                            CP =       1.703   TIME= 23:08:28
 Force-distributed-surface identified by real constant set 37 and        
 contact element type 37 has been set up.  The pilot node 148341 is      
 used to apply the force which connects to other element 68300.          
 Internal MPC will be built.                                             
 The used degrees of freedom set is  UX   UY   UZ   ROTX ROTY ROTZ
 ****************************************
  

 *** NOTE ***                            CP =       1.703   TIME= 23:08:28
 Force-distributed-surface identified by real constant set 39 and        
 contact element type 39 has been set up.  The pilot node 148342 is      
 used to apply the force which connects to other element 68300.          
 Internal MPC will be built.                                             
 The used degrees of freedom set is  UX   UY   UZ   ROTX ROTY ROTZ
 ****************************************
  

 *** NOTE ***                            CP =       1.703   TIME= 23:08:28
 Force-distributed-surface identified by real constant set 41 and        
 contact element type 41 has been set up.  The pilot node 148343 is      
 used to apply the force which connects to other element 68301.          
 Internal MPC will be built.                                             
 The used degrees of freedom set is  UX   UY   UZ   ROTX ROTY ROTZ
 ****************************************
  

 *** NOTE ***                            CP =       1.703   TIME= 23:08:28
 Force-distributed-surface identified by real constant set 43 and        
 contact element type 43 has been set up.  The pilot node 148344 is      
 used to apply the force which connects to other element 68301.          
 Internal MPC will be built.                                             
 The used degrees of freedom set is  UX   UY   UZ   ROTX ROTY ROTZ
 *WARNING*: Certain contact elements (for example 68914&69164) overlap   
 each other.                                                             
 ****************************************
  

 *** NOTE ***                            CP =       1.703   TIME= 23:08:28
 Force-distributed-surface identified by real constant set 45 and        
 contact element type 45 has been set up.  The pilot node 148345 is      
 used to apply the force which connects to other element 68302.          
 Internal MPC will be built.                                             
 The used degrees of freedom set is  UX   UY   UZ   ROTX ROTY ROTZ
 ****************************************
  

 *** NOTE ***                            CP =       1.703   TIME= 23:08:28
 Force-distributed-surface identified by real constant set 47 and        
 contact element type 47 has been set up.  The pilot node 148346 is      
 used to apply the force which connects to other element 68302.          
 Internal MPC will be built.                                             
 The used degrees of freedom set is  UX   UY   UZ   ROTX ROTY ROTZ
 ****************************************
  

 *** NOTE ***                            CP =       1.703   TIME= 23:08:28
 Force-distributed-surface identified by real constant set 49 and        
 contact element type 49 has been set up.  The pilot node 148347 is      
 used to apply the force which connects to other element 68303.          
 Internal MPC will be built.                                             
 The used degrees of freedom set is  UX   UY   UZ   ROTX ROTY ROTZ
 *WARNING*: Certain contact elements (for example 68988&69251) overlap   
 each other.                                                             
 ****************************************
  

 *** NOTE ***                            CP =       1.703   TIME= 23:08:28
 Force-distributed-surface identified by real constant set 51 and        
 contact element type 51 has been set up.  The pilot node 148348 is      
 used to apply the force which connects to other element 68303.          
 Internal MPC will be built.                                             
 The used degrees of freedom set is  UX   UY   UZ   ROTX ROTY ROTZ
 ****************************************
  

 *** NOTE ***                            CP =       1.703   TIME= 23:08:28
 Force-distributed-surface identified by real constant set 53 and        
 contact element type 53 has been set up.  The pilot node 148349 is      
 used to apply the force which connects to other element 68304.          
 Internal MPC will be built.                                             
 The used degrees of freedom set is  UX   UY   UZ   ROTX ROTY ROTZ
 *WARNING*: Certain contact elements (for example 69088&69337) overlap   
 each other.                                                             
 ****************************************
  

 *** NOTE ***                            CP =       1.703   TIME= 23:08:28
 Force-distributed-surface identified by real constant set 55 and        
 contact element type 55 has been set up.  The pilot node 148350 is      
 used to apply the force which connects to other element 68304.          
 Internal MPC will be built.                                             
 The used degrees of freedom set is  UX   UY   UZ   ROTX ROTY ROTZ
 ****************************************
  

 *** NOTE ***                            CP =       1.703   TIME= 23:08:28
 Force-distributed-surface identified by real constant set 57 and        
 contact element type 57 has been set up.  The pilot node 148351 is      
 used to apply the force which connects to other element 68305.          
 Internal MPC will be built.                                             
 The used degrees of freedom set is  UX   UY   UZ   ROTX ROTY ROTZ
 *WARNING*: Certain contact elements (for example 69251&68967) overlap   
 each other.                                                             
 ****************************************
  

 *** NOTE ***                            CP =       1.703   TIME= 23:08:28
 Force-distributed-surface identified by real constant set 59 and        
 contact element type 59 has been set up.  The pilot node 148352 is      
 used to apply the force which connects to other element 68305.          
 Internal MPC will be built.                                             
 The used degrees of freedom set is  UX   UY   UZ   ROTX ROTY ROTZ
 ****************************************
  

 *** NOTE ***                            CP =       1.703   TIME= 23:08:28
 Force-distributed-surface identified by real constant set 61 and        
 contact element type 61 has been set up.  The pilot node 148353 is      
 used to apply the force which connects to other element 68306.          
 Internal MPC will be built.                                             
 The used degrees of freedom set is  UX   UY   UZ   ROTX ROTY ROTZ
 *WARNING*: Certain contact elements (for example 69337&69067) overlap   
 each other.                                                             
 ****************************************
  

 *** NOTE ***                            CP =       1.703   TIME= 23:08:28
 Force-distributed-surface identified by real constant set 63 and        
 contact element type 63 has been set up.  The pilot node 148354 is      
 used to apply the force which connects to other element 68306.          
 Internal MPC will be built.                                             
 The used degrees of freedom set is  UX   UY   UZ   ROTX ROTY ROTZ
 ****************************************
  

 *** NOTE ***                            CP =       1.703   TIME= 23:08:28
 Force-distributed-surface identified by real constant set 65 and        
 contact element type 65 has been set up.  The pilot node 148355 is      
 used to apply the force which connects to other element 68307.          
 Internal MPC will be built.                                             
 The used degrees of freedom set is  UX   UY   UZ   ROTX ROTY ROTZ
 ****************************************
  

 *** NOTE ***                            CP =       1.703   TIME= 23:08:28
 Force-distributed-surface identified by real constant set 67 and        
 contact element type 67 has been set up.  The pilot node 148356 is      
 used to apply the force which connects to other element 68307.          
 Internal MPC will be built.                                             
 The used degrees of freedom set is  UX   UY   UZ   ROTX ROTY ROTZ
 *WARNING*: Certain contact elements (for example 69403&69454) overlap   
 each other.                                                             
 ****************************************
  

 *** NOTE ***                            CP =       1.703   TIME= 23:08:28
 Force-distributed-surface identified by real constant set 69 and        
 contact element type 69 has been set up.  The pilot node 148357 is      
 used to apply the force which connects to other element 68308.          
 Internal MPC will be built.                                             
 The used degrees of freedom set is  UX   UY   UZ   ROTX ROTY ROTZ
 ****************************************
  

 *** NOTE ***                            CP =       1.703   TIME= 23:08:28
 Force-distributed-surface identified by real constant set 71 and        
 contact element type 71 has been set up.  The pilot node 148358 is      
 used to apply the force which connects to other element 68308.          
 Internal MPC will be built.                                             
 The used degrees of freedom set is  UX   UY   UZ   ROTX ROTY ROTZ
 *WARNING*: Certain contact elements (for example 69414&69564) overlap   
 each other.                                                             
 ****************************************
  

 *** NOTE ***                            CP =       1.703   TIME= 23:08:28
 Force-distributed-surface identified by real constant set 73 and        
 contact element type 73 has been set up.  The pilot node 148359 is      
 used to apply the force which connects to other element 68309.          
 Internal MPC will be built.                                             
 The used degrees of freedom set is  UX   UY   UZ   ROTX ROTY ROTZ
 *WARNING*: Certain contact elements (for example 69454&69399) overlap   
 each other.                                                             
 ****************************************
  

 *** NOTE ***                            CP =       1.703   TIME= 23:08:28
 Force-distributed-surface identified by real constant set 75 and        
 contact element type 75 has been set up.  The pilot node 148360 is      
 used to apply the force which connects to other element 68309.          
 Internal MPC will be built.                                             
 The used degrees of freedom set is  UX   UY   UZ   ROTX ROTY ROTZ
 ****************************************
  

 *** NOTE ***                            CP =       1.703   TIME= 23:08:28
 Force-distributed-surface identified by real constant set 77 and        
 contact element type 77 has been set up.  The pilot node 148361 is      
 used to apply the force which connects to other element 68310.          
 Internal MPC will be built.                                             
 The used degrees of freedom set is  UX   UY   UZ   ROTX ROTY ROTZ
 *WARNING*: Certain contact elements (for example 69564&69410) overlap   
 each other.                                                             
 ****************************************
  

 *** NOTE ***                            CP =       1.703   TIME= 23:08:28
 Force-distributed-surface identified by real constant set 79 and        
 contact element type 79 has been set up.  The pilot node 148362 is      
 used to apply the force which connects to other element 68310.          
 Internal MPC will be built.                                             
 The used degrees of freedom set is  UX   UY   UZ   ROTX ROTY ROTZ
 ****************************************
  

 *** NOTE ***                            CP =       1.703   TIME= 23:08:28
 Force-distributed-surface identified by real constant set 81 and        
 contact element type 81 has been set up.  The pilot node 148363 is      
 used to apply the force which connects to other element 68311.          
 Internal MPC will be built.                                             
 The used degrees of freedom set is  UX   UY   UZ   ROTX ROTY ROTZ
 ****************************************
  

 *** NOTE ***                            CP =       1.703   TIME= 23:08:28
 Force-distributed-surface identified by real constant set 83 and        
 contact element type 83 has been set up.  The pilot node 148364 is      
 used to apply the force which connects to other element 68311.          
 Internal MPC will be built.                                             
 The used degrees of freedom set is  UX   UY   UZ   ROTX ROTY ROTZ
 ****************************************
  

 *** NOTE ***                            CP =       1.703   TIME= 23:08:28
 Force-distributed-surface identified by real constant set 85 and        
 contact element type 85 has been set up.  The pilot node 148365 is      
 used to apply the force which connects to other element 68312.          
 Internal MPC will be built.                                             
 The used degrees of freedom set is  UX   UY   UZ   ROTX ROTY ROTZ
 ****************************************
  

 *** NOTE ***                            CP =       1.703   TIME= 23:08:28
 Force-distributed-surface identified by real constant set 87 and        
 contact element type 87 has been set up.  The pilot node 148366 is      
 used to apply the force which connects to other element 68312.          
 Internal MPC will be built.                                             
 The used degrees of freedom set is  UX   UY   UZ   ROTX ROTY ROTZ
 ****************************************
  

 *** NOTE ***                            CP =       1.703   TIME= 23:08:28
 Force-distributed-surface identified by real constant set 89 and        
 contact element type 89 has been set up.  The pilot node 148367 is      
 used to apply the force which connects to other element 68313.          
 Internal MPC will be built.                                             
 The used degrees of freedom set is  UX   UY   UZ   ROTX ROTY ROTZ
 *WARNING*: Certain contact elements (for example 69862&68342) overlap   
 each other.                                                             
 ****************************************
  

 *** NOTE ***                            CP =       1.703   TIME= 23:08:28
 Force-distributed-surface identified by real constant set 91 and        
 contact element type 91 has been set up.  The pilot node 148368 is      
 used to apply the force which connects to other element 68313.          
 Internal MPC will be built.                                             
 The used degrees of freedom set is  UX   UY   UZ   ROTX ROTY ROTZ
 ****************************************
  

 *** NOTE ***                            CP =       1.703   TIME= 23:08:28
 Force-distributed-surface identified by real constant set 93 and        
 contact element type 93 has been set up.  The pilot node 148369 is      
 used to apply the force which connects to other element 68314.          
 Internal MPC will be built.                                             
 The used degrees of freedom set is  UX   UY   UZ   ROTX ROTY ROTZ
 ****************************************
  

 *** NOTE ***                            CP =       1.703   TIME= 23:08:28
 Force-distributed-surface identified by real constant set 95 and        
 contact element type 95 has been set up.  The pilot node 148370 is      
 used to apply the force which connects to other element 68314.          
 Internal MPC will be built.                                             
 The used degrees of freedom set is  UX   UY   UZ   ROTX ROTY ROTZ
 ****************************************
  

 *** NOTE ***                            CP =       1.703   TIME= 23:08:28
 Force-distributed-surface identified by real constant set 97 and        
 contact element type 97 has been set up.  The pilot node 148371 is      
 used to apply the force which connects to other element 68315.          
 Internal MPC will be built.                                             
 The used degrees of freedom set is  UX   UY   UZ   ROTX ROTY ROTZ
 ****************************************
  

 *** NOTE ***                            CP =       1.703   TIME= 23:08:28
 Force-distributed-surface identified by real constant set 99 and        
 contact element type 99 has been set up.  The pilot node 148372 is      
 used to apply the force which connects to other element 68315.          
 Internal MPC will be built.                                             
 The used degrees of freedom set is  UX   UY   UZ   ROTX ROTY ROTZ
 ****************************************
  

 *** NOTE ***                            CP =       1.703   TIME= 23:08:28
 Force-distributed-surface identified by real constant set 101 and       
 contact element type 101 has been set up.  The pilot node 148373 is     
 used to apply the force which connects to other element 68316.          
 Internal MPC will be built.                                             
 The used degrees of freedom set is  UX   UY   UZ   ROTX ROTY ROTZ
 ****************************************
  

 *** NOTE ***                            CP =       1.703   TIME= 23:08:28
 Force-distributed-surface identified by real constant set 103 and       
 contact element type 103 has been set up.  The pilot node 148374 is     
 used to apply the force which connects to other element 68316.          
 Internal MPC will be built.                                             
 The used degrees of freedom set is  UX   UY   UZ   ROTX ROTY ROTZ
 ****************************************
  

 *** NOTE ***                            CP =       1.703   TIME= 23:08:28
 Force-distributed-surface identified by real constant set 105 and       
 contact element type 105 has been set up.  The pilot node 148375 is     
 used to apply the force which connects to other element 68317.          
 Internal MPC will be built.                                             
 The used degrees of freedom set is  UX   UY   UZ   ROTX ROTY ROTZ
 ****************************************
  

 *** NOTE ***                            CP =       1.703   TIME= 23:08:28
 Force-distributed-surface identified by real constant set 107 and       
 contact element type 107 has been set up.  The pilot node 148376 is     
 used to apply the force which connects to other element 68317.          
 Internal MPC will be built.                                             
 The used degrees of freedom set is  UX   UY   UZ   ROTX ROTY ROTZ
 *WARNING*: Certain contact elements (for example 70112&71103) overlap   
 each other.                                                             
 ****************************************
  

 *** NOTE ***                            CP =       1.703   TIME= 23:08:28
 Force-distributed-surface identified by real constant set 109 and       
 contact element type 109 has been set up.  The pilot node 148377 is     
 used to apply the force which connects to other element 68318.          
 Internal MPC will be built.                                             
 The used degrees of freedom set is  UX   UY   UZ   ROTX ROTY ROTZ
 *WARNING*: Certain contact elements (for example 70147&70620) overlap   
 each other.                                                             
 ****************************************
  

 *** NOTE ***                            CP =       1.703   TIME= 23:08:28
 Force-distributed-surface identified by real constant set 111 and       
 contact element type 111 has been set up.  The pilot node 148378 is     
 used to apply the force which connects to other element 68318.          
 Internal MPC will be built.                                             
 The used degrees of freedom set is  UX   UY   UZ   ROTX ROTY ROTZ
 ****************************************
  

 *** NOTE ***                            CP =       1.703   TIME= 23:08:28
 Force-distributed-surface identified by real constant set 113 and       
 contact element type 113 has been set up.  The pilot node 148379 is     
 used to apply the force which connects to other element 68319.          
 Internal MPC will be built.                                             
 The used degrees of freedom set is  UX   UY   UZ   ROTX ROTY ROTZ
 *WARNING*: Certain contact elements (for example 70232&70578) overlap   
 each other.                                                             
 ****************************************
  

 *** NOTE ***                            CP =       1.703   TIME= 23:08:28
 Force-distributed-surface identified by real constant set 115 and       
 contact element type 115 has been set up.  The pilot node 148380 is     
 used to apply the force which connects to other element 68319.          
 Internal MPC will be built.                                             
 The used degrees of freedom set is  UX   UY   UZ   ROTX ROTY ROTZ
 ****************************************
  

 *** NOTE ***                            CP =       1.703   TIME= 23:08:28
 Force-distributed-surface identified by real constant set 117 and       
 contact element type 117 has been set up.  The pilot node 148381 is     
 used to apply the force which connects to other element 68320.          
 Internal MPC will be built.                                             
 The used degrees of freedom set is  UX   UY   UZ   ROTX ROTY ROTZ
 *WARNING*: Certain contact elements (for example 70805&70207) overlap   
 each other.                                                             
 ****************************************
  

 *** NOTE ***                            CP =       1.703   TIME= 23:08:28
 Force-distributed-surface identified by real constant set 119 and       
 contact element type 119 has been set up.  The pilot node 148382 is     
 used to apply the force which connects to other element 68320.          
 Internal MPC will be built.                                             
 The used degrees of freedom set is  UX   UY   UZ   ROTX ROTY ROTZ
 ****************************************
  

 *** NOTE ***                            CP =       1.703   TIME= 23:08:28
 Force-distributed-surface identified by real constant set 121 and       
 contact element type 121 has been set up.  The pilot node 148383 is     
 used to apply the force which connects to other element 68322.          
 Internal MPC will be built.                                             
 The used degrees of freedom set is  UX   UY   UZ   ROTX ROTY ROTZ
 ****************************************
  

 *** NOTE ***                            CP =       1.703   TIME= 23:08:28
 Force-distributed-surface identified by real constant set 123 and       
 contact element type 123 has been set up.  The pilot node 148384 is     
 used to apply the force which connects to other element 68322.          
 Internal MPC will be built.                                             
 The used degrees of freedom set is  UX   UY   UZ   ROTX ROTY ROTZ
 ****************************************
  

 *** NOTE ***                            CP =       1.703   TIME= 23:08:28
 Force-distributed-surface identified by real constant set 125 and       
 contact element type 125 has been set up.  The pilot node 148385 is     
 used to apply the force which connects to other element 68321.          
 Internal MPC will be built.                                             
 The used degrees of freedom set is  UX   UY   UZ   ROTX ROTY ROTZ
 ****************************************
  

 *** NOTE ***                            CP =       1.703   TIME= 23:08:28
 Force-distributed-surface identified by real constant set 127 and       
 contact element type 127 has been set up.  The pilot node 148386 is     
 used to apply the force which connects to other element 68321.          
 Internal MPC will be built.                                             
 The used degrees of freedom set is  UX   UY   UZ   ROTX ROTY ROTZ
 ****************************************
  

 *** NOTE ***                            CP =       1.703   TIME= 23:08:28
 Force-distributed-surface identified by real constant set 129 and       
 contact element type 129 has been set up.  The pilot node 148387 is     
 used to apply the force which connects to other element 68325.          
 Internal MPC will be built.                                             
 The used degrees of freedom set is  UX   UY   UZ   ROTX ROTY ROTZ
 ****************************************
  

 *** NOTE ***                            CP =       1.703   TIME= 23:08:28
 Force-distributed-surface identified by real constant set 131 and       
 contact element type 131 has been set up.  The pilot node 148388 is     
 used to apply the force which connects to other element 68325.          
 Internal MPC will be built.                                             
 The used degrees of freedom set is  UX   UY   UZ   ROTX ROTY ROTZ
 *WARNING*: Certain contact elements (for example 71103&70104) overlap   
 each other.                                                             
 ****************************************
  

 *** NOTE ***                            CP =       1.703   TIME= 23:08:28
 Force-distributed-surface identified by real constant set 133 and       
 contact element type 133 has been set up.  The pilot node 148389 is     
 used to apply the force which connects to other element 68328.          
 Internal MPC will be built.                                             
 The used degrees of freedom set is  UX   UY   UZ   ROTX ROTY ROTZ
 ****************************************
  

 *** NOTE ***                            CP =       1.703   TIME= 23:08:28
 Force-distributed-surface identified by real constant set 135 and       
 contact element type 135 has been set up.  The pilot node 148390 is     
 used to apply the force which connects to other element 68328.          
 Internal MPC will be built.                                             
 The used degrees of freedom set is  UX   UY   UZ   ROTX ROTY ROTZ
 ****************************************
  

 *** WARNING ***                         CP =       1.703   TIME= 23:08:28
 Overconstraint may occur for Lagrange multiplier or MPC based contact   
 algorithm.                                                              
 The reasons for possible overconstraint are:                            

 *** WARNING ***                         CP =       1.703   TIME= 23:08:28
 Certain contact elements (for example 71103 & 70104) overlap with       
 other.                                                                  
 ****************************************
  
  

 *** NOTE ***                            CP =       1.750   TIME= 23:08:28
 Internal nodes from 148391 to 148529 are created.                       
 55 internal nodes are used for handling degrees of freedom on pilot     
 nodes of rigid target surfaces.                                         
 84 internal nodes are used for non-contact elements with mixed          
 formulation.                                                            

  
  
     D I S T R I B U T E D   D O M A I N   D E C O M P O S E R
  
  ...Number of elements: 33878
  ...Number of nodes:    77724
  ...Decompose to 2 CPU domains
  ...Element load balance ratio =     1.001


                      L O A D   S T E P   O P T I O N S

   LOAD STEP NUMBER. . . . . . . . . . . . . . . .     1
   TIME AT END OF THE LOAD STEP. . . . . . . . . .  10.000    
   AUTOMATIC TIME STEPPING . . . . . . . . . . . .    ON
      STARTING TIME STEP SIZE. . . . . . . . . . .  2.0000    
      MINIMUM TIME STEP SIZE . . . . . . . . . . .  1.0000    
      MAXIMUM TIME STEP SIZE . . . . . . . . . . .  3.0000    
   MAXIMUM NUMBER OF EQUILIBRIUM ITERATIONS. . . .    15
   STEP CHANGE BOUNDARY CONDITIONS . . . . . . . .   YES
   STRESS-STIFFENING . . . . . . . . . . . . . . .    ON
   TRANSIENT (INERTIA) EFFECTS
      STRUCTURAL DOFS. . . . . . . . . . . . . . .    ON
   TRANSIENT INTEGRATION PARAMETERS
      GAMMA. . . . . . . . . . . . . . . . . . . . 0.10000    
      ALPHA. . . . . . . . . . . . . . . . . . . . 0.30250    
      DELTA. . . . . . . . . . . . . . . . . . . . 0.60000    
      USING HHT TIME INTEGRATION
      ALPHAF . . . . . . . . . . . . . . . . . . . 0.10000    
      ALPHAM . . . . . . . . . . . . . . . . . . .  0.0000    
   TERMINATE ANALYSIS IF NOT CONVERGED . . . . . .YES (EXIT)  
   CONVERGENCE CONTROLS. . . . . . . . . . . . . .USE DEFAULTS
   PRINT OUTPUT CONTROLS . . . . . . . . . . . . .NO PRINTOUT
   DATABASE OUTPUT CONTROLS
      ITEM     FREQUENCY   COMPONENT
       ALL       NONE               
      NSOL        ALL               
      RSOL        ALL               
      STRS        ALL               
      EPEL        ALL               
      EPPL        ALL               
      V           ALL               
      A           ALL               
      MISC        ALL       _ELMISC 


 SOLUTION MONITORING INFO IS WRITTEN TO FILE= file.mntr                                                                                                                                                                                                                                                           
 *WARNING*: Some MPC/Lagrange based elements (e.g.68341) in real         
 constant set 27 overlap with other MPC/Lagrange based elements          
 (e.g.69828) in real constant set 89 which can cause overconstraint.     

 *** NOTE ***                            CP =       2.156   TIME= 23:08:29
 Smoothing on certain contact nodes (e.g.28230) for pair ID 29 may have  
 accuracy issue.  Please verify element normal of connected contact      
 elements (e.g.68392 & 68393).                                           

 *** NOTE ***                            CP =       2.172   TIME= 23:08:29
 Force-distributed-surface identified by real constant set 27 and        
 contact element type 27 has been set up.  The pilot node 148336 is      
 used to apply the force which connects to other element 68297.          
 Internal MPC will be built.                                             
 The used degrees of freedom set is  UX   UY   UZ   ROTX ROTY ROTZ
 *WARNING*: Certain contact elements (for example 68384&68492) overlap   
 each other.                                                             
 ****************************************
  

 *** NOTE ***                            CP =       2.172   TIME= 23:08:29
 Force-distributed-surface identified by real constant set 29 and        
 contact element type 29 has been set up.  The pilot node 148337 is      
 used to apply the force which connects to other element 68298.          
 Internal MPC will be built.                                             
 The used degrees of freedom set is  UX   UY   UZ   ROTX ROTY ROTZ
 *WARNING*: Certain contact elements (for example 68494&68384) overlap   
 each other.                                                             
 ****************************************
  

 *** NOTE ***                            CP =       2.172   TIME= 23:08:29
 Force-distributed-surface identified by real constant set 63 and        
 contact element type 63 has been set up.  The pilot node 148354 is      
 used to apply the force which connects to other element 68306.          
 Internal MPC will be built.                                             
 The used degrees of freedom set is  UX   UY   UZ   ROTX ROTY ROTZ
 ****************************************
  

 *** NOTE ***                            CP =       2.172   TIME= 23:08:29
 Force-distributed-surface identified by real constant set 71 and        
 contact element type 71 has been set up.  The pilot node 148358 is      
 used to apply the force which connects to other element 68308.          
 Internal MPC will be built.                                             
 The used degrees of freedom set is  UX   UY   UZ   ROTX ROTY ROTZ
 *WARNING*: Certain contact elements (for example 69414&69564) overlap   
 each other.                                                             
 ****************************************
  

 *** NOTE ***                            CP =       2.172   TIME= 23:08:29
 Force-distributed-surface identified by real constant set 77 and        
 contact element type 77 has been set up.  The pilot node 148361 is      
 used to apply the force which connects to other element 68310.          
 Internal MPC will be built.                                             
 The used degrees of freedom set is  UX   UY   UZ   ROTX ROTY ROTZ
 *WARNING*: Certain contact elements (for example 69564&69410) overlap   
 each other.                                                             
 ****************************************
  

 *** NOTE ***                            CP =       2.188   TIME= 23:08:29
 Force-distributed-surface identified by real constant set 79 and        
 contact element type 79 has been set up.  The pilot node 148362 is      
 used to apply the force which connects to other element 68310.          
 Internal MPC will be built.                                             
 The used degrees of freedom set is  UX   UY   UZ   ROTX ROTY ROTZ
 ****************************************
  

 *** NOTE ***                            CP =       2.188   TIME= 23:08:29
 Force-distributed-surface identified by real constant set 85 and        
 contact element type 85 has been set up.  The pilot node 148365 is      
 used to apply the force which connects to other element 68312.          
 Internal MPC will be built.                                             
 The used degrees of freedom set is  UX   UY   UZ   ROTX ROTY ROTZ
 ****************************************
  

 *** NOTE ***                            CP =       2.188   TIME= 23:08:29
 Force-distributed-surface identified by real constant set 87 and        
 contact element type 87 has been set up.  The pilot node 148366 is      
 used to apply the force which connects to other element 68312.          
 Internal MPC will be built.                                             
 The used degrees of freedom set is  UX   UY   UZ   ROTX ROTY ROTZ
 ****************************************
  

 *** NOTE ***                            CP =       2.188   TIME= 23:08:29
 Force-distributed-surface identified by real constant set 89 and        
 contact element type 89 has been set up.  The pilot node 148367 is      
 used to apply the force which connects to other element 68313.          
 Internal MPC will be built.                                             
 The used degrees of freedom set is  UX   UY   UZ   ROTX ROTY ROTZ
 *WARNING*: Certain contact elements (for example 69862&68342) overlap   
 each other.                                                             
 ****************************************
  

 *** NOTE ***                            CP =       2.188   TIME= 23:08:29
 Force-distributed-surface identified by real constant set 91 and        
 contact element type 91 has been set up.  The pilot node 148368 is      
 used to apply the force which connects to other element 68313.          
 Internal MPC will be built.                                             
 The used degrees of freedom set is  UX   UY   UZ   ROTX ROTY ROTZ
 ****************************************
  

 *** NOTE ***                            CP =       2.188   TIME= 23:08:29
 Force-distributed-surface identified by real constant set 97 and        
 contact element type 97 has been set up.  The pilot node 148371 is      
 used to apply the force which connects to other element 68315.          
 Internal MPC will be built.                                             
 The used degrees of freedom set is  UX   UY   UZ   ROTX ROTY ROTZ
 ****************************************
  

 *** NOTE ***                            CP =       2.188   TIME= 23:08:29
 Force-distributed-surface identified by real constant set 107 and       
 contact element type 107 has been set up.  The pilot node 148376 is     
 used to apply the force which connects to other element 68317.          
 Internal MPC will be built.                                             
 The used degrees of freedom set is  UX   UY   UZ   ROTX ROTY ROTZ
 *WARNING*: Certain contact elements (for example 70112&71103) overlap   
 each other.                                                             
 ****************************************
  

 *** NOTE ***                            CP =       2.188   TIME= 23:08:29
 Force-distributed-surface identified by real constant set 109 and       
 contact element type 109 has been set up.  The pilot node 148377 is     
 used to apply the force which connects to other element 68318.          
 Internal MPC will be built.                                             
 The used degrees of freedom set is  UX   UY   UZ   ROTX ROTY ROTZ
 *WARNING*: Certain contact elements (for example 70147&70620) overlap   
 each other.                                                             
 ****************************************
  

 *** NOTE ***                            CP =       2.188   TIME= 23:08:29
 Force-distributed-surface identified by real constant set 113 and       
 contact element type 113 has been set up.  The pilot node 148379 is     
 used to apply the force which connects to other element 68319.          
 Internal MPC will be built.                                             
 The used degrees of freedom set is  UX   UY   UZ   ROTX ROTY ROTZ
 *WARNING*: Certain contact elements (for example 70232&70578) overlap   
 each other.                                                             
 ****************************************
  

 *** NOTE ***                            CP =       2.188   TIME= 23:08:29
 Force-distributed-surface identified by real constant set 115 and       
 contact element type 115 has been set up.  The pilot node 148380 is     
 used to apply the force which connects to other element 68319.          
 Internal MPC will be built.                                             
 The used degrees of freedom set is  UX   UY   UZ   ROTX ROTY ROTZ
 ****************************************
  

 *** NOTE ***                            CP =       2.188   TIME= 23:08:29
 Force-distributed-surface identified by real constant set 117 and       
 contact element type 117 has been set up.  The pilot node 148381 is     
 used to apply the force which connects to other element 68320.          
 Internal MPC will be built.                                             
 The used degrees of freedom set is  UX   UY   UZ   ROTX ROTY ROTZ
 *WARNING*: Certain contact elements (for example 70805&70207) overlap   
 each other.                                                             
 ****************************************
  

 *** NOTE ***                            CP =       2.188   TIME= 23:08:29
 Force-distributed-surface identified by real constant set 121 and       
 contact element type 121 has been set up.  The pilot node 148383 is     
 used to apply the force which connects to other element 68322.          
 Internal MPC will be built.                                             
 The used degrees of freedom set is  UX   UY   UZ   ROTX ROTY ROTZ
 ****************************************
  

 *** NOTE ***                            CP =       2.188   TIME= 23:08:29
 Force-distributed-surface identified by real constant set 129 and       
 contact element type 129 has been set up.  The pilot node 148387 is     
 used to apply the force which connects to other element 68325.          
 Internal MPC will be built.                                             
 The used degrees of freedom set is  UX   UY   UZ   ROTX ROTY ROTZ
 ****************************************
  

 *** NOTE ***                            CP =       2.188   TIME= 23:08:29
 Force-distributed-surface identified by real constant set 131 and       
 contact element type 131 has been set up.  The pilot node 148388 is     
 used to apply the force which connects to other element 68325.          
 Internal MPC will be built.                                             
 The used degrees of freedom set is  UX   UY   UZ   ROTX ROTY ROTZ
 *WARNING*: Certain contact elements (for example 71103&70104) overlap   
 each other.                                                             
 ****************************************
  

 *** NOTE ***                            CP =       2.188   TIME= 23:08:29
 Force-distributed-surface identified by real constant set 133 and       
 contact element type 133 has been set up.  The pilot node 148389 is     
 used to apply the force which connects to other element 68328.          
 Internal MPC will be built.                                             
 The used degrees of freedom set is  UX   UY   UZ   ROTX ROTY ROTZ
 ****************************************
  

 *** NOTE ***                            CP =       2.188   TIME= 23:08:29
 Force-distributed-surface identified by real constant set 135 and       
 contact element type 135 has been set up.  The pilot node 148390 is     
 used to apply the force which connects to other element 68328.          
 Internal MPC will be built.                                             
 The used degrees of freedom set is  UX   UY   UZ   ROTX ROTY ROTZ
 ****************************************
  
 MAXIMUM NUMBER OF EQUILIBRIUM ITERATIONS HAS BEEN MODIFIED              
  TO BE, NEQIT = 25, BY SOLUTION CONTROL LOGIC.                          

  
 The FEA model contains 0 external CE equations and 330 internal CE      
 equations.                                                              


                         ***********  PRECISE MASS SUMMARY  ***********

   TOTAL RIGID BODY MASS MATRIX ABOUT ORIGIN
               Translational mass               |   Coupled translational/rotational mass
         1.4963        0.0000        0.0000     |     0.0000      -0.16992       0.66880E-01
         0.0000        1.4963        0.0000     |    0.16992        0.0000       0.51689E-07
         0.0000        0.0000        1.4963     |   -0.66880E-01  -0.51689E-07    0.0000    
     ------------------------------------------ | ------------------------------------------
                                                |         Rotational mass (inertia)
                                                |    0.30368E-01   0.83744E-09   0.10943E-07
                                                |    0.83744E-09   0.27598E-01  -0.68157E-02
                                                |    0.10943E-07  -0.68157E-02   0.48844E-02

   TOTAL MASS =  1.4963    
     The mass principal axes coincide with the global Cartesian axes

   CENTER OF MASS (X,Y,Z)=   0.34545E-07  -0.44698E-01  -0.11356    

   TOTAL INERTIA ABOUT CENTER OF MASS
        0.80824E-02  -0.14730E-08   0.50729E-08
       -0.14730E-08   0.83022E-02   0.77928E-03
        0.50729E-08   0.77928E-03   0.18950E-02

   PRINCIPAL INERTIAS =   0.80824E-02   0.83956E-02   0.18015E-02
   ORIENTATION VECTORS OF THE INERTIA PRINCIPAL AXES IN GLOBAL CARTESIAN
     ( 1.000, 0.000, 0.000) (-0.000, 0.993, 0.119) (-0.000,-0.119, 0.993) 


  *** MASS SUMMARY BY ELEMENT TYPE ***

  TYPE      MASS
     1  0.110375    
     2  0.370174E-01
     3  0.737903E-02
     4  0.224674E-01
     5  0.597293E-01
     6  0.341950E-01
     7  0.937679E-02
     8  0.955116E-03
     9  0.212440E-02
    10  0.955116E-03
    11  0.608750E-02
    12  0.105744E-01
    13  0.937679E-02
    14  0.137588E-01
    15  0.955116E-03
    16  0.212440E-02
    17  0.955116E-03
    18  0.608750E-02
    19  0.105744E-01
    20  0.137588E-01
    21  0.137587E-01
    22  0.137587E-01
    23  0.523465    
    24  0.523465    
    25  0.314902E-01
    26  0.314902E-01

 Range of element maximum matrix coefficients in global coordinates
 Maximum = 2.177729089E+10 at element 28371.                             
 Minimum = 1645046.8 at element 3690.                                    

   *** ELEMENT MATRIX FORMULATION TIMES
     TYPE    NUMBER   ENAME      TOTAL CP  AVE CP

        1      4840  SOLID186      1.031   0.000213
        2      3150  SOLID187      0.297   0.000094
        3      2094  SOLID187      0.156   0.000075
        4      1272  SOLID187      0.141   0.000111
        5      3354  SOLID187      0.297   0.000089
        6      1658  SOLID187      0.234   0.000141
        7      1168  SOLID187      0.078   0.000067
        8       494  SOLID187      0.031   0.000063
        9       796  SOLID187      0.094   0.000118
       10       494  SOLID187      0.047   0.000095
       11      1192  SOLID187      0.094   0.000079
       12       527  SOLID187      0.031   0.000059
       13      1168  SOLID187      0.078   0.000067
       14       845  SOLID187      0.094   0.000111
       15       494  SOLID187      0.047   0.000095
       16       796  SOLID187      0.031   0.000039
       17       494  SOLID187      0.031   0.000063
       18      1192  SOLID187      0.094   0.000079
       19       527  SOLID187      0.062   0.000119
       20       845  SOLID187      0.031   0.000037
       21       893  SOLID187      0.078   0.000087
       22       893  SOLID187      0.109   0.000122
       23       868  SOLID187      0.078   0.000090
       24       868  SOLID187      0.047   0.000054
       25        65  SOLID186      0.031   0.000481
       26        65  SOLID186      0.000   0.000000
       27        44  CONTA174      0.000   0.000000
       28         1  TARGE170      0.000   0.000000
       29       220  CONTA174      0.000   0.000000
       30         1  TARGE170      0.000   0.000000
       31        80  CONTA174      0.000   0.000000
       32         1  TARGE170      0.000   0.000000
       33         8  CONTA174      0.016   0.001953
       34         1  TARGE170      0.000   0.000000
       35        92  CONTA174      0.016   0.000170
       36         1  TARGE170      0.000   0.000000
       37         8  CONTA174      0.000   0.000000
       38         1  TARGE170      0.000   0.000000
       39        86  CONTA174      0.000   0.000000
       40         1  TARGE170      0.000   0.000000
       41        22  CONTA174      0.000   0.000000
       42         1  TARGE170      0.000   0.000000
       43         6  CONTA174      0.000   0.000000
       44         1  TARGE170      0.000   0.000000
       45        22  CONTA174      0.000   0.000000
       46         1  TARGE170      0.000   0.000000
       47         6  CONTA174      0.000   0.000000
       48         1  TARGE170      0.000   0.000000
       49        49  CONTA174      0.016   0.000319
       50         1  TARGE170      0.000   0.000000
       51        49  CONTA174      0.000   0.000000
       52         1  TARGE170      0.000   0.000000
       53        49  CONTA174      0.000   0.000000
       54         1  TARGE170      0.000   0.000000
       55        49  CONTA174      0.000   0.000000
       56         1  TARGE170      0.000   0.000000
[...]
     LINE SEARCH PARAMETER =   1.000     SCALED MAX DOF INC =  0.2491E-03
         10  FORCE-DISTRIBUTED CONSTRAINTS DO NOT SATISFY COMPATIBILITY CONDITION 
     FORCE CONVERGENCE VALUE  =   1.542      CRITERION=  0.1498E-03
    EQUIL ITER  20 COMPLETED.  NEW TRIANG MATRIX.  MAX DOF INC= -0.3450E-03
     DISP CONVERGENCE VALUE   =  0.6107E-04  CRITERION=  0.4169E-03 <<< CONVERGED
     LINE SEARCH PARAMETER =  0.2281     SCALED MAX DOF INC = -0.7870E-04
          8  FORCE-DISTRIBUTED CONSTRAINTS DO NOT SATISFY COMPATIBILITY CONDITION 
     FORCE CONVERGENCE VALUE  =   1.880      CRITERION=  0.1528E-03
    EQUIL ITER  21 COMPLETED.  NEW TRIANG MATRIX.  MAX DOF INC=  0.4854E-04
     DISP CONVERGENCE VALUE   =  0.3831E-04  CRITERION=  0.4254E-03 <<< CONVERGED
     LINE SEARCH PARAMETER =   1.000     SCALED MAX DOF INC =  0.4854E-04
          2  FORCE-DISTRIBUTED CONSTRAINTS DO NOT SATISFY COMPATIBILITY CONDITION 
     FORCE CONVERGENCE VALUE  =  0.2567      CRITERION=  0.1560E-03
    EQUIL ITER  22 COMPLETED.  NEW TRIANG MATRIX.  MAX DOF INC=  0.2227E-02
     DISP CONVERGENCE VALUE   =  0.1041E-03  CRITERION=  0.4341E-03 <<< CONVERGED
     LINE SEARCH PARAMETER =   1.000     SCALED MAX DOF INC =  0.2227E-02
         13  FORCE-DISTRIBUTED CONSTRAINTS DO NOT SATISFY COMPATIBILITY CONDITION 
     FORCE CONVERGENCE VALUE  =   14.44      CRITERION=  0.1591E-03
    EQUIL ITER  23 COMPLETED.  NEW TRIANG MATRIX.  MAX DOF INC= -0.3816E-03
     DISP CONVERGENCE VALUE   =  0.2734E-03  CRITERION=  0.4430E-03 <<< CONVERGED
     LINE SEARCH PARAMETER =  0.9236     SCALED MAX DOF INC = -0.3525E-03
         12  FORCE-DISTRIBUTED CONSTRAINTS DO NOT SATISFY COMPATIBILITY CONDITION 
     FORCE CONVERGENCE VALUE  =   14.53      CRITERION=  0.1624E-03
    EQUIL ITER  24 COMPLETED.  NEW TRIANG MATRIX.  MAX DOF INC=  0.9107E-03
     DISP CONVERGENCE VALUE   =  0.1010E-03  CRITERION=  0.4520E-03 <<< CONVERGED
     LINE SEARCH PARAMETER =  0.1388     SCALED MAX DOF INC =  0.1264E-03
         12  FORCE-DISTRIBUTED CONSTRAINTS DO NOT SATISFY COMPATIBILITY CONDITION 
     FORCE CONVERGENCE VALUE  =   14.15      CRITERION=  0.1657E-03
    EQUIL ITER  25 COMPLETED.  NEW TRIANG MATRIX.  MAX DOF INC=  0.4461E-03
     DISP CONVERGENCE VALUE   =  0.3503E-03  CRITERION=  0.4520E-03 <<< CONVERGED
     LINE SEARCH PARAMETER =   1.000     SCALED MAX DOF INC =  0.4461E-03
         10  FORCE-DISTRIBUTED CONSTRAINTS DO NOT SATISFY COMPATIBILITY CONDITION 
     CONSTRAINT CONDITIONS ARE NOT SATISFIED FOR     1 JOINT ELEMENTS WITH LAG MULT OPTION
     FORCE CONVERGENCE VALUE  =   21.31      CRITERION=  0.1657E-03
    >>> SOLUTION NOT CONVERGED AFTER  25 EQUILIBRIUM ITERATIONS
 *** LOAD STEP     1   SUBSTEP     1  NOT COMPLETED.  CUM ITER =     25
 *** BEGIN BISECTION NUMBER   1    NEW TIME INCREMENT=   1.0000    

  
 The FEA model contains 0 external CE equations and 330 internal CE      
 equations.                                                              

 Range of element maximum matrix coefficients in global coordinates
 Maximum = 2.177729089E+10 at element 28371.                             
 Minimum = 1645046.8 at element 3690.                                    
     FORCE CONVERGENCE VALUE  =  0.2498E-29  CRITERION=  0.5102E-04

 DISTRIBUTED SPARSE MATRIX DIRECT SOLVER.
  Number of equations =      232766,    Maximum wavefront =   5136

  Local memory allocated for solver              =   1084.227 MB
  Local memory required for in-core solution     =    799.945 MB
  Local memory required for out-of-core solution =    497.233 MB

  Total memory allocated for solver              =   2192.277 MB
  Total memory required for in-core solution     =   1573.302 MB
  Total memory required for out-of-core solution =    841.513 MB

 *** NOTE ***                            CP =     426.812   TIME= 23:15:57
 The Distributed Sparse Matrix Solver is currently running in the        
 in-core memory mode.  This memory mode uses the most amount of memory   
 in order to avoid using the hard drive as much as possible, which most  
 often results in the fastest solution time.  This mode is recommended   
 if enough physical memory is present to accommodate all of the solver   
 data.                                                                   

 *** WARNING ***                         CP =     426.812   TIME= 23:15:57
 Pivoting has been activated for the Distributed Sparse Matrix Solver .  
 The memory required may greatly exceed the predicted amount.  In that   
 event, use the DSPOPTION command to change the memory mode and/or       
 memory size used by the Distributed Sparse Matrix Solver.               
 Distributed sparse solver maximum pivot= 2.338095235E+10 at node 71246  
 UX.                                                                     
 Distributed sparse solver minimum pivot= 5391.61091 at node 76813 UX.   
 Distributed sparse solver minimum pivot in absolute value= 5391.61091   
 at node 76813 UX.                                                       
     DISP CONVERGENCE VALUE   =  0.2618E-02  CRITERION=  0.1336E-03
    EQUIL ITER   1 COMPLETED.  NEW TRIANG MATRIX.  MAX DOF INC= -0.2618E-01
     DISP CONVERGENCE VALUE   =  0.2618E-02  CRITERION=  0.1363E-03
     LINE SEARCH PARAMETER =   1.000     SCALED MAX DOF INC = -0.2618E-01
         17  FORCE-DISTRIBUTED CONSTRAINTS DO NOT SATISFY COMPATIBILITY CONDITION 
     CONSTRAINT CONDITIONS ARE NOT SATISFIED FOR     2 JOINT ELEMENTS WITH LAG MULT OPTION
     FORCE CONVERGENCE VALUE  =   2144.      CRITERION=  0.5206E-04
    EQUIL ITER   2 COMPLETED.  NEW TRIANG MATRIX.  MAX DOF INC=  0.1655E-02
     DISP CONVERGENCE VALUE   =  0.1655E-02  CRITERION=  0.1968E-03
     LINE SEARCH PARAMETER =  0.9999     SCALED MAX DOF INC =  0.1655E-02
         11  FORCE-DISTRIBUTED CONSTRAINTS DO NOT SATISFY COMPATIBILITY CONDITION 
     CONSTRAINT CONDITIONS ARE NOT SATISFIED FOR     2 JOINT ELEMENTS WITH LAG MULT OPTION
     FORCE CONVERGENCE VALUE  =   36.14      CRITERION=  0.5312E-04
    EQUIL ITER   3 COMPLETED.  NEW TRIANG MATRIX.  MAX DOF INC=  0.2478E-03
     DISP CONVERGENCE VALUE   =  0.6951E-04  CRITERION=  0.2008E-03 <<< CONVERGED
     LINE SEARCH PARAMETER =   1.000     SCALED MAX DOF INC =  0.2478E-03
          6  FORCE-DISTRIBUTED CONSTRAINTS DO NOT SATISFY COMPATIBILITY CONDITION 
     FORCE CONVERGENCE VALUE  =   4.232      CRITERION=  0.5421E-04
    EQUIL ITER   4 COMPLETED.  NEW TRIANG MATRIX.  MAX DOF INC=  0.2460E-03
     DISP CONVERGENCE VALUE   =  0.1688E-04  CRITERION=  0.2049E-03 <<< CONVERGED
     LINE SEARCH PARAMETER =  0.9710     SCALED MAX DOF INC =  0.2388E-03
          3  FORCE-DISTRIBUTED CONSTRAINTS DO NOT SATISFY COMPATIBILITY CONDITION 
     FORCE CONVERGENCE VALUE  =  0.2269      CRITERION=  0.5531E-04
    EQUIL ITER   5 COMPLETED.  NEW TRIANG MATRIX.  MAX DOF INC=  0.8414E-04
     DISP CONVERGENCE VALUE   =  0.1695E-04  CRITERION=  0.2091E-03 <<< CONVERGED
     LINE SEARCH PARAMETER =  0.3819     SCALED MAX DOF INC =  0.3213E-04
          2  FORCE-DISTRIBUTED CONSTRAINTS DO NOT SATISFY COMPATIBILITY CONDITION 
     FORCE CONVERGENCE VALUE  =  0.1848      CRITERION=  0.5644E-04
    EQUIL ITER   6 COMPLETED.  NEW TRIANG MATRIX.  MAX DOF INC=  0.1345E-03
     DISP CONVERGENCE VALUE   =  0.1905E-04  CRITERION=  0.2134E-03 <<< CONVERGED
     LINE SEARCH PARAMETER =   1.000     SCALED MAX DOF INC =  0.1345E-03
          2  FORCE-DISTRIBUTED CONSTRAINTS DO NOT SATISFY COMPATIBILITY CONDITION 
     FORCE CONVERGENCE VALUE  =  0.7699E-01  CRITERION=  0.5760E-04
    EQUIL ITER   7 COMPLETED.  NEW TRIANG MATRIX.  MAX DOF INC=  0.2598E-03
     DISP CONVERGENCE VALUE   =  0.2916E-04  CRITERION=  0.2177E-03 <<< CONVERGED
     LINE SEARCH PARAMETER =  0.5444     SCALED MAX DOF INC =  0.1414E-03
          2  FORCE-DISTRIBUTED CONSTRAINTS DO NOT SATISFY COMPATIBILITY CONDITION 
     FORCE CONVERGENCE VALUE  =  0.2369      CRITERION=  0.5877E-04
    EQUIL ITER   8 COMPLETED.  NEW TRIANG MATRIX.  MAX DOF INC=  0.1728E-03
     DISP CONVERGENCE VALUE   =  0.5532E-04  CRITERION=  0.2222E-03 <<< CONVERGED
     LINE SEARCH PARAMETER =   1.000     SCALED MAX DOF INC =  0.1728E-03
          3  FORCE-DISTRIBUTED CONSTRAINTS DO NOT SATISFY COMPATIBILITY CONDITION 
     FORCE CONVERGENCE VALUE  =  0.4874      CRITERION=  0.5997E-04
    EQUIL ITER   9 COMPLETED.  NEW TRIANG MATRIX.  MAX DOF INC= -0.1957E-03
     DISP CONVERGENCE VALUE   =  0.3503E-04  CRITERION=  0.2267E-03 <<< CONVERGED
     LINE SEARCH PARAMETER =  0.2281     SCALED MAX DOF INC = -0.4464E-04
          2  FORCE-DISTRIBUTED CONSTRAINTS DO NOT SATISFY COMPATIBILITY CONDITION 
     FORCE CONVERGENCE VALUE  =  0.6061      CRITERION=  0.1224E-03
    EQUIL ITER  10 COMPLETED.  NEW TRIANG MATRIX.  MAX DOF INC=  0.1758E-03
     DISP CONVERGENCE VALUE   =  0.2210E-04  CRITERION=  0.2313E-03 <<< CONVERGED
     LINE SEARCH PARAMETER =   1.000     SCALED MAX DOF INC =  0.1758E-03
          2  FORCE-DISTRIBUTED CONSTRAINTS DO NOT SATISFY COMPATIBILITY CONDITION 
     FORCE CONVERGENCE VALUE  =  0.1619      CRITERION=  0.1249E-03
    EQUIL ITER  11 COMPLETED.  NEW TRIANG MATRIX.  MAX DOF INC=  0.1488E-03
     DISP CONVERGENCE VALUE   =  0.4489E-04  CRITERION=  0.2360E-03 <<< CONVERGED
     LINE SEARCH PARAMETER =  0.7484     SCALED MAX DOF INC =  0.1113E-03
          3  FORCE-DISTRIBUTED CONSTRAINTS DO NOT SATISFY COMPATIBILITY CONDITION 
     FORCE CONVERGENCE VALUE  =  0.3641      CRITERION=  0.1274E-03
    EQUIL ITER  12 COMPLETED.  NEW TRIANG MATRIX.  MAX DOF INC=  0.1752E-03
     DISP CONVERGENCE VALUE   =  0.4306E-04  CRITERION=  0.2409E-03 <<< CONVERGED
     LINE SEARCH PARAMETER =  0.3934     SCALED MAX DOF INC =  0.6893E-04
          2  FORCE-DISTRIBUTED CONSTRAINTS DO NOT SATISFY COMPATIBILITY CONDITION 
     FORCE CONVERGENCE VALUE  =  0.5860      CRITERION=  0.1300E-03
    EQUIL ITER  13 COMPLETED.  NEW TRIANG MATRIX.  MAX DOF INC=  0.2740E-03
     DISP CONVERGENCE VALUE   =  0.3654E-04  CRITERION=  0.2458E-03 <<< CONVERGED
     LINE SEARCH PARAMETER =  0.7038     SCALED MAX DOF INC =  0.1928E-03
          3  FORCE-DISTRIBUTED CONSTRAINTS DO NOT SATISFY COMPATIBILITY CONDITION 
     FORCE CONVERGENCE VALUE  =  0.3878      CRITERION=  0.1327E-03
    EQUIL ITER  14 COMPLETED.  NEW TRIANG MATRIX.  MAX DOF INC= -0.1096E-03
     DISP CONVERGENCE VALUE   =  0.4404E-04  CRITERION=  0.2508E-03 <<< CONVERGED
     LINE SEARCH PARAMETER =  0.5099     SCALED MAX DOF INC = -0.5588E-04
          2  FORCE-DISTRIBUTED CONSTRAINTS DO NOT SATISFY COMPATIBILITY CONDITION 
     FORCE CONVERGENCE VALUE  =  0.5523      CRITERION=  0.1354E-03
    EQUIL ITER  15 COMPLETED.  NEW TRIANG MATRIX.  MAX DOF INC=  0.2148E-03
     DISP CONVERGENCE VALUE   =  0.5882E-04  CRITERION=  0.2559E-03 <<< CONVERGED
     LINE SEARCH PARAMETER =  0.7464     SCALED MAX DOF INC =  0.1603E-03
          3  FORCE-DISTRIBUTED CONSTRAINTS DO NOT SATISFY COMPATIBILITY CONDITION 
     FORCE CONVERGENCE VALUE  =  0.6954      CRITERION=  0.1382E-03
    EQUIL ITER  16 COMPLETED.  NEW TRIANG MATRIX.  MAX DOF INC= -0.1818E-03
     DISP CONVERGENCE VALUE   =  0.1431E-03  CRITERION=  0.2611E-03 <<< CONVERGED
     LINE SEARCH PARAMETER =   1.000     SCALED MAX DOF INC = -0.1818E-03
          3  FORCE-DISTRIBUTED CONSTRAINTS DO NOT SATISFY COMPATIBILITY CONDITION 
     FORCE CONVERGENCE VALUE  =   3.822      CRITERION=  0.1410E-03
    EQUIL ITER  17 COMPLETED.  NEW TRIANG MATRIX.  MAX DOF INC=  0.2949E-02
     DISP CONVERGENCE VALUE   =  0.3141E-04  CRITERION=  0.2665E-03 <<< CONVERGED
     LINE SEARCH PARAMETER =  0.8030E-01 SCALED MAX DOF INC =  0.2368E-03
          8  FORCE-DISTRIBUTED CONSTRAINTS DO NOT SATISFY COMPATIBILITY CONDITION 
     FORCE CONVERGENCE VALUE  =   3.648      CRITERION=  0.1439E-03
    EQUIL ITER  18 COMPLETED.  NEW TRIANG MATRIX.  MAX DOF INC=  0.3633E-03
     DISP CONVERGENCE VALUE   =  0.1380E-03  CRITERION=  0.2719E-03 <<< CONVERGED
     LINE SEARCH PARAMETER =  0.5027     SCALED MAX DOF INC =  0.1826E-03
          9  FORCE-DISTRIBUTED CONSTRAINTS DO NOT SATISFY COMPATIBILITY CONDITION 
     FORCE CONVERGENCE VALUE  =   4.942      CRITERION=  0.1468E-03
    EQUIL ITER  19 COMPLETED.  NEW TRIANG MATRIX.  MAX DOF INC= -0.3091E-03
     DISP CONVERGENCE VALUE   =  0.2443E-03  CRITERION=  0.2775E-03 <<< CONVERGED
     LINE SEARCH PARAMETER =   1.000     SCALED MAX DOF INC = -0.3091E-03
          7  FORCE-DISTRIBUTED CONSTRAINTS DO NOT SATISFY COMPATIBILITY CONDITION 
     FORCE CONVERGENCE VALUE  =   10.21      CRITERION=  0.1498E-03
    EQUIL ITER  20 COMPLETED.  NEW TRIANG MATRIX.  MAX DOF INC=  0.1292E-02
     DISP CONVERGENCE VALUE   =  0.6716E-03  CRITERION=  0.2831E-03
     LINE SEARCH PARAMETER =   1.000     SCALED MAX DOF INC =  0.1292E-02
         11  FORCE-DISTRIBUTED CONSTRAINTS DO NOT SATISFY COMPATIBILITY CONDITION 
     CONSTRAINT CONDITIONS ARE NOT SATISFIED FOR     2 JOINT ELEMENTS WITH LAG MULT OPTION
     FORCE CONVERGENCE VALUE  =   68.04      CRITERION=  0.7642E-04
    EQUIL ITER  21 COMPLETED.  NEW TRIANG MATRIX.  MAX DOF INC= -0.2546E-02
     DISP CONVERGENCE VALUE   =  0.4110E-03  CRITERION=  0.2889E-03
     LINE SEARCH PARAMETER =  0.2281     SCALED MAX DOF INC = -0.5808E-03
         10  FORCE-DISTRIBUTED CONSTRAINTS DO NOT SATISFY COMPATIBILITY CONDITION 
     CONSTRAINT CONDITIONS ARE NOT SATISFIED FOR     3 JOINT ELEMENTS WITH LAG MULT OPTION
     FORCE CONVERGENCE VALUE  =   86.11      CRITERION=  0.7798E-04
    EQUIL ITER  22 COMPLETED.  NEW TRIANG MATRIX.  MAX DOF INC= -0.3795E-03
     DISP CONVERGENCE VALUE   =  0.3045E-03  CRITERION=  0.2948E-03
     LINE SEARCH PARAMETER =   1.000     SCALED MAX DOF INC = -0.3795E-03
          6  FORCE-DISTRIBUTED CONSTRAINTS DO NOT SATISFY COMPATIBILITY CONDITION 
     CONSTRAINT CONDITIONS ARE NOT SATISFIED FOR     1 JOINT ELEMENTS WITH LAG MULT OPTION
     FORCE CONVERGENCE VALUE  =   13.84      CRITERION=  0.7957E-04
    EQUIL ITER  23 COMPLETED.  NEW TRIANG MATRIX.  MAX DOF INC=  0.3059E-02
     DISP CONVERGENCE VALUE   =  0.8301E-03  CRITERION=  0.3008E-03
     LINE SEARCH PARAMETER =   1.000     SCALED MAX DOF INC =  0.3059E-02
         12  FORCE-DISTRIBUTED CONSTRAINTS DO NOT SATISFY COMPATIBILITY CONDITION 
     CONSTRAINT CONDITIONS ARE NOT SATISFIED FOR     2 JOINT ELEMENTS WITH LAG MULT OPTION
     FORCE CONVERGENCE VALUE  =   106.1      CRITERION=  0.8120E-04
    EQUIL ITER  24 COMPLETED.  NEW TRIANG MATRIX.  MAX DOF INC= -0.3242E-02
     DISP CONVERGENCE VALUE   =  0.4647E-03  CRITERION=  0.3069E-03
     LINE SEARCH PARAMETER =  0.2110     SCALED MAX DOF INC = -0.6840E-03
         12  FORCE-DISTRIBUTED CONSTRAINTS DO NOT SATISFY COMPATIBILITY CONDITION 
     CONSTRAINT CONDITIONS ARE NOT SATISFIED FOR     3 JOINT ELEMENTS WITH LAG MULT OPTION
     FORCE CONVERGENCE VALUE  =   127.7      CRITERION=  0.8285E-04
    EQUIL ITER  25 COMPLETED.  NEW TRIANG MATRIX.  MAX DOF INC= -0.7051E-03

 *** ERROR ***                           CP =     843.953   TIME= 23:23:33
 Solution not converged at time 1 (load step 1 substep 1).               
  Run terminated.                                                        

 *** WARNING ***                         CP =     843.953   TIME= 23:23:33
 The unconverged solution (identified as time 10 substep 999999) is      
 output for analysis debug purposes.  Results should not be used for     
 any other purpose.                                                      




         R E S T A R T   I N F O R M A T I O N

 REASON FOR TERMINATION. . . . . . . . . .UNCONVERGED SOLUTION                    
 RESTART BY RE-RUNNING THE ANALYSIS

 ALL CURRENT ANSYS DATA WRITTEN TO FILE NAME= file.db
  FOR POSSIBLE RESUME FROM THIS POINT





 NUMBER OF WARNING MESSAGES ENCOUNTERED=          8
 NUMBER OF ERROR   MESSAGES ENCOUNTERED=          1



 ***** PROBLEM TERMINATED BY INDICATED ERROR(S) OR BY END OF INPUT DATA *****

+--------- D I S T R I B U T E D   A N S Y S   S T A T I S T I C S ------------+

Release: Release 19.2       Build: 19.2       Update: UP20180808   Platform: WINDOWS x64 
Date Run: 12/19/2018   Time: 23:23     Process ID: 15512
Operating System: Windows 8  (Build: 9200)

Processor Model: Intel(R) Core(TM) i7-7500U CPU @ 2.70GHz

Compiler: Intel(R) FORTRAN Compiler Version 17.0.4  (Build: 20170411)
          Intel(R) C/C++ Compiler Version 17.0.4  (Build: 20170411)
          Intel(R) Math Kernel Library Version 2017.0.3 Product Build 20170413

Number of machines requested            :    1
Total number of cores available         :    4
Number of physical cores available      :    2
Number of processes requested           :    2
Number of threads per process requested :    1
Total number of cores requested         :    2 (Distributed Memory Parallel)               
MPI Type: INTELMPI
MPI Version: Intel(R) MPI Library 2017 Update 3 for Windows* OS


GPU Acceleration: Not Requested

Job Name: file0
Input File: dummy.dat

  Core                Machine Name   Working Directory
 -----------------------------------------------------
     0                      PSVSSK   S:\FILES(imp)\BIPED\ANALYSIS\module_7\_ProjectScratch\Scr106F
     1                      PSVSSK   S:\FILES(imp)\BIPED\ANALYSIS\module_7\_ProjectScratch\Scr106F
 
Latency time from master to core     1 =    2.048 microseconds
 
Communication speed from master to core     1 =  2993.93 MB/sec

Total CPU time for main thread                    :      847.0 seconds
Total CPU time summed for all threads             :      847.5 seconds

Elapsed time spent pre-processing model (/PREP7)  :        0.4 seconds
Elapsed time spent solution - preprocessing       :        1.2 seconds
Elapsed time spent computing solution             :      909.4 seconds
Elapsed time spent solution - postprocessing      :        0.7 seconds
Elapsed time spent post-processing model (/POST1) :        0.0 seconds
 
Equation solver used                              :            Sparse (symmetric)
Equation solver computational rate                :       23.6 Gflops
Equation solver effective I/O rate                :        7.6 GB/sec

Maximum total memory used                         :     3267.0 MB
Maximum total memory allocated                    :     5916.0 MB
Total physical memory available                   :          8 GB

Total amount of I/O written to disk               :        7.7 GB
Total amount of I/O read from disk                :       23.5 GB

+------ E N D   D I S T R I B U T E D   A N S Y S   S T A T I S T I C S -------+


 *---------------------------------------------------------------------------*
 |                                                                           |
 |                       DISTRIBUTED ANSYS RUN COMPLETED                     |
 |                                                                           |
 |---------------------------------------------------------------------------|
 |                                                                           |
 | Ansys Release 19.2          Build 19.2         UP20180808     WINDOWS x64 |
 |                                                                           |
 |---------------------------------------------------------------------------|
 |                                                                           |
 | Database Requested(-db)  1024 MB    Scratch Memory Requested      1024 MB |
 | Maximum Database Used      53 MB    Maximum Scratch Memory Used   1714 MB |
 |                                                                           |
 |---------------------------------------------------------------------------|
 |                                                                           |
 |        CP Time      (sec) =        847.453       Time  =  23:23:43        |
 |        Elapsed Time (sec) =        920.000       Date  =  12/19/2018      |
 |                                                                           |
 *---------------------------------------------------------------------------*
